REMARK  4 active torsions:
REMARK  status: ('A' for Active; 'I' for Inactive)
REMARK    1  A    between atoms: C_2  and  O_3 
REMARK    2  A    between atoms: C_5  and  O_6 
REMARK    3  A    between atoms: C_10  and  C_14 
REMARK    4  A    between atoms: C_17  and  O_18 
ROOT
HETATM    1  C   UNL     1      -1.336   0.182  -3.436  1.00  0.00     0.074 A 
HETATM    2  C   UNL     1      -0.311   0.213  -4.368  1.00  0.00     0.071 A 
HETATM    3  C   UNL     1       1.012   0.047  -3.973  1.00  0.00     0.074 A 
HETATM    4  C   UNL     1       1.320  -0.148  -2.640  1.00  0.00     0.085 A 
HETATM    5  C   UNL     1       0.289  -0.176  -1.693  1.00  0.00     0.082 A 
HETATM    6  C   UNL     1       0.565  -0.362  -0.260  1.00  0.00     0.200 C 
HETATM    7  O   UNL     1       1.660  -0.716   0.143  1.00  0.00    -0.286 OA
HETATM    8  C   UNL     1      -0.556  -0.102   0.662  1.00  0.00     0.048 C 
HETATM    9  C   UNL     1      -1.801   0.043   0.139  1.00  0.00     0.159 C 
HETATM   10  O   UNL     1      -2.035  -0.056  -1.174  1.00  0.00    -0.321 OA
HETATM   11  C   UNL     1      -1.049  -0.015  -2.094  1.00  0.00     0.094 A 
ENDROOT
BRANCH   8  12
HETATM   12  C   UNL     1      -0.328   0.002   2.124  1.00  0.00    -0.020 A 
HETATM   13  C   UNL     1      -0.972  -0.874   2.996  1.00  0.00     0.015 A 
HETATM   14  C   UNL     1      -0.758  -0.774   4.355  1.00  0.00     0.037 A 
HETATM   15  C   UNL     1       0.097   0.197   4.854  1.00  0.00     0.065 A 
HETATM   16  C   UNL     1       0.735   1.075   3.989  1.00  0.00     0.037 A 
HETATM   17  C   UNL     1       0.529   0.977   2.629  1.00  0.00     0.015 A 
BRANCH  15  18
HETATM   18  O   UNL     1       0.305   0.293   6.194  1.00  0.00    -0.361 OA
HETATM   19  H   UNL     1       1.058  -0.276   6.401  1.00  0.00     0.217 HD
ENDBRANCH  15  18
ENDBRANCH   8  12
BRANCH   4  20
HETATM   20  O   UNL     1       2.610  -0.312  -2.252  1.00  0.00    -0.360 OA
HETATM   21  H   UNL     1       2.957   0.568  -2.056  1.00  0.00     0.217 HD
ENDBRANCH   4  20
BRANCH   2  22
HETATM   22  O   UNL     1      -0.601   0.409  -5.679  1.00  0.00    -0.361 OA
HETATM   23  H   UNL     1      -0.581   1.364  -5.830  1.00  0.00     0.217 HD
ENDBRANCH   2  22
TORSDOF 4
