REMARK  3 active torsions:
REMARK  status: ('A' for Active; 'I' for Inactive)
REMARK    1  A    between atoms: O_2  and  C_11 
REMARK    2  A    between atoms: O_4  and  C_15 
REMARK    3  A    between atoms: C_7  and  C_10 
ROOT
ATOM      1  O   UNL d   1      21.189  -9.985  -0.001  0.00  0.00    -0.462 OA
ATOM      2  O   UNL d   1      19.443 -15.223  -0.005  0.00  0.00    -0.286 OA
ATOM      3  C   UNL d   1      21.897 -13.192  -0.001  0.00  0.00     0.106 A 
ATOM      4  C   UNL d   1      18.669 -12.095  -0.002  0.00  0.00     0.064 A 
ATOM      5  C   UNL d   1      22.415 -11.378  -0.001  0.00  0.00     0.145 A 
ATOM      6  C   UNL d   1      19.954 -13.647  -0.002  0.00  0.00     0.204 A 
ATOM      7  C   UNL d   1      23.207 -14.556   0.000  0.00  0.00     0.135 A 
ATOM      8  C   UNL d   1      19.383 -10.425  -0.001  0.00  0.00     0.208 A 
ATOM      9  C   UNL d   1      24.246 -10.917   0.001  0.00  0.00     0.092 A 
ATOM     10  C   UNL d   1      25.037 -14.091   0.001  0.00  0.00     0.091 A 
ATOM     11  C   UNL d   1      25.556 -12.276   0.002  0.00  0.00     0.124 A 
ENDROOT
BRANCH   4  12
ATOM     12  C   UNL d   1      16.695 -12.360  -0.001  0.00  0.00    -0.011 A 
ATOM     13  C   UNL d   1      15.733 -12.466  -0.087  0.00  0.00     0.012 A 
ATOM     14  C   UNL d   1      13.862 -12.718  -0.086  0.00  0.00     0.046 A 
ATOM     15  C   UNL d   1      12.950 -12.866   0.002  0.00  0.00     0.117 A 
ATOM     16  C   UNL d   1      13.908 -12.761   0.089  0.00  0.00     0.046 A 
ATOM     17  O   UNL d   1      11.125 -13.113   0.003  0.00  0.00    -0.507 OA
ATOM     18  C   UNL d   1      15.779 -12.508   0.087  0.00  0.00     0.012 A 
ATOM     19  H   UNL d   1      10.685 -13.154  -0.063  0.00  0.00     0.292 HD
ENDBRANCH   4  12
BRANCH   7  20
ATOM     20  O   UNL d   1      22.775 -16.349  -0.000  0.00  0.00    -0.506 OA
ATOM     21  H   UNL d   1      21.474 -16.511   0.001  0.00  0.00     0.292 HD
ENDBRANCH   7  20
BRANCH  11  22
ATOM     22  O   UNL d   1      27.344 -11.832   0.003  0.00  0.00    -0.506 OA
ATOM     23  H   UNL d   1      28.059 -12.937   0.003  0.00  0.00     0.292 HD
ENDBRANCH  11  22
TORSDOF 3
