@<TRIPOS>MOLECULE
jz4_H.pdb
 22 22 0 0 0
SMALL
GASTEIGER

@<TRIPOS>ATOM
      1  C4        24.2940  -24.1240   -0.0710 C.3   167  JZ4167     -0.0650
      2  C7        21.5530  -27.2140   -4.1120 C.ar  167  JZ4167     -0.0613
      3  C8        22.0680  -26.7470   -5.3310 C.ar  167  JZ4167     -0.0583
      4  C9        22.6710  -25.5120   -5.4480 C.ar  167  JZ4167     -0.0199
      5  C10       22.7690  -24.7300   -4.2950 C.ar  167  JZ4167      0.1200
      6  C11       21.6930  -26.4590   -2.9540 C.ar  167  JZ4167     -0.0551
      7  C12       22.2940  -25.1870   -3.0750 C.ar  167  JZ4167     -0.0060
      8  C13       22.4630  -24.4140   -1.8080 C.3   167  JZ4167     -0.0245
      9  C14       23.9250  -24.7040   -1.3940 C.3   167  JZ4167     -0.0518
     10  OAB       23.4120  -23.5360   -4.3420 O.3   167  JZ4167     -0.5065
     11  H         25.3130  -24.3620    0.1510 H     167  JZ4167      0.0230
     12  H         23.6590  -24.5330    0.6870 H     167  JZ4167      0.0230
     13  H         24.1740  -23.0610   -0.1020 H     167  JZ4167      0.0230
     14  H         21.0670  -28.1240   -4.0750 H     167  JZ4167      0.0618
     15  H         21.9930  -27.3470   -6.1670 H     167  JZ4167      0.0619
     16  H         23.0360  -25.1780   -6.3540 H     167  JZ4167      0.0654
     17  H         21.3700  -26.8140   -2.0400 H     167  JZ4167      0.0621
     18  H         21.7790  -24.7550   -1.0590 H     167  JZ4167      0.0314
     19  H         22.2660  -23.3690   -1.9300 H     167  JZ4167      0.0314
     20  H         24.5760  -24.2930   -2.1370 H     167  JZ4167      0.0266
     21  H         24.0240  -25.7660   -1.3110 H     167  JZ4167      0.0266
     22  H         23.7390  -23.2120   -5.1580 H     167  JZ4167      0.2921
@<TRIPOS>BOND
     1     1     9    1
     2     1    11    1
     3     1    12    1
     4     1    13    1
     5     2     3   ar
     6     2     6   ar
     7     2    14    1
     8     3     4   ar
     9     3    15    1
    10     4     5   ar
    11     4    16    1
    12     5    10    1
    13     5     7   ar
    14     6     7   ar
    15     6    17    1
    16     7     8    1
    17     8     9    1
    18     8    18    1
    19     8    19    1
    20     9    20    1
    21     9    21    1
    22    10    22    1
