@<TRIPOS>MOLECULE
ligandH.pdb
   31    33     1     0     0
SMALL
bcc


@<TRIPOS>ATOM
      1 C1          64.5570    32.5020    27.0680 ca       301 G5E       0.178100
      2 C2          63.2990    32.8280    26.5580 ca       301 G5E      -0.200000
      3 C3          63.2070    33.6090    25.4090 ca       301 G5E       0.207100
      4 C7          64.2610    34.9760    23.6210 cc       301 G5E       0.412500
      5 C10         64.4860    36.7690    22.3550 c        301 G5E       0.476400
      6 C12         65.7010    36.8360    24.4810 ca       301 G5E       0.010600
      7 C13         67.0730    36.9160    24.2230 ca       301 G5E       0.145900
      8 C14         67.9280    37.5050    25.1560 ca       301 G5E      -0.164000
      9 C15         67.4160    38.0080    26.3520 ca       301 G5E      -0.087000
     10 C16         66.0500    37.9280    26.6120 ca       301 G5E      -0.139000
     11 C4          64.3790    34.0650    24.7770 ca       301 G5E      -0.244900
     12 C5          65.6450    33.7490    25.3130 ca       301 G5E      -0.022000
     13 C6          65.7250    32.9650    26.4530 ca       301 G5E      -0.252000
     14 N8          63.5310    34.7800    22.5570 nd       301 G5E      -0.481300
     15 N9          63.6780    35.8990    21.7290 n        301 G5E      -0.259900
     16 N11         64.8540    36.2270    23.5310 n        301 G5E      -0.262500
     17 C17         65.1940    37.3420    25.6800 ca       301 G5E      -0.076000
     18 S18         64.9770    38.2910    21.7600 s        301 G5E      -0.450400
     19 F19         67.5510    36.4190    23.0590 f        301 G5E      -0.129900
     20 O20         61.9880    33.9160    24.8920 oh       301 G5E      -0.486100
     21 O21         64.6490    31.7490    28.1880 oh       301 G5E      -0.488100
     22 H           62.4440    32.4930    27.0290 ha       301 G5E       0.174000
     23 H1          68.9390    37.5680    24.9610 ha       301 G5E       0.156000
     24 H2          68.0490    38.4390    27.0440 ha       301 G5E       0.145000
     25 H3          65.6710    38.3030    27.4960 ha       301 G5E       0.147000
     26 H4          66.5040    34.0990    24.8600 ha       301 G5E       0.151000
     27 H5          66.6470    32.7230    26.8480 ha       301 G5E       0.143000
     28 H6          63.2630    36.0250    20.8450 hn       301 G5E       0.382500
     29 H7          64.1830    37.2820    25.8770 ha       301 G5E       0.153000
     30 H8          61.9260    34.4420    24.1190 ho       301 G5E       0.436000
     31 H9          65.4900    31.5270    28.5350 ho       301 G5E       0.426000
@<TRIPOS>BOND
     1     1    13 ar  
     2     1     2 ar  
     3     1    21 1   
     4     2     3 ar  
     5     2    22 1   
     6     3    11 ar  
     7     3    20 1   
     8     4    14 2   
     9     4    16 1   
    10     4    11 1   
    11     5    15 1   
    12     5    18 2   
    13     5    16 1   
    14     6    16 1   
    15     6     7 ar  
    16     6    17 ar  
    17     7    19 1   
    18     7     8 ar  
    19     8     9 ar  
    20     8    23 1   
    21     9    10 ar  
    22     9    24 1   
    23    10    17 ar  
    24    10    25 1   
    25    11    12 ar  
    26    12    13 ar  
    27    12    26 1   
    28    13    27 1   
    29    14    15 1   
    30    15    28 1   
    31    17    29 1   
    32    20    30 1   
    33    21    31 1   
@<TRIPOS>SUBSTRUCTURE
     1 G5E         1 TEMP              0 ****  ****    0 ROOT
