@<TRIPOS>MOLECULE
ligandH.pdb
 31 33 0 0 0
SMALL
GASTEIGER

@<TRIPOS>ATOM
      1  C1        64.5570   32.5020   27.0680 C.ar  301  G5E301      0.1204
      2  C2        63.2990   32.8280   26.5580 C.ar  301  G5E301      0.0220
      3  C3        63.2070   33.6090   25.4090 C.ar  301  G5E301      0.1310
      4  C7        64.2610   34.9760   23.6210 C.ar  301  G5E301      0.1707
      5  C10       64.4860   36.7690   22.3550 C.ar  301  G5E301      0.1805
      6  C12       65.7010   36.8360   24.4810 C.ar  301  G5E301      0.0856
      7  C13       67.0730   36.9160   24.2230 C.ar  301  G5E301      0.1472
      8  C14       67.9280   37.5050   25.1560 C.ar  301  G5E301     -0.0244
      9  C15       67.4160   38.0080   26.3520 C.ar  301  G5E301     -0.0589
     10  C16       66.0500   37.9280   26.6120 C.ar  301  G5E301     -0.0596
     11  C4        64.3790   34.0650   24.7770 C.ar  301  G5E301      0.0611
     12  C5        65.6450   33.7490   25.3130 C.ar  301  G5E301     -0.0441
     13  C6        65.7250   32.9650   26.4530 C.ar  301  G5E301     -0.0193
     14  N8        63.5310   34.7800   22.5570 N.ar  301  G5E301     -0.1528
     15  N9        63.6780   35.8990   21.7290 N.ar  301  G5E301     -0.2537
     16  N11       64.8540   36.2270   23.5310 N.ar  301  G5E301     -0.2685
     17  C17       65.1940   37.3420   25.6800 C.ar  301  G5E301     -0.0349
     18  S18       64.9770   38.2910   21.7600 S.2   301  G5E301     -0.0111
     19  F19       67.5510   36.4190   23.0590 F     301  G5E301     -0.2033
     20  O20       61.9880   33.9160   24.8920 O.3   301  G5E301     -0.5059
     21  O21       64.6490   31.7490   28.1880 O.3   301  G5E301     -0.5066
     22  H         62.4440   32.4930   27.0290 H     301  G5E301      0.0691
     23  H         68.9390   37.5680   24.9610 H     301  G5E301      0.0647
     24  H         68.0490   38.4390   27.0440 H     301  G5E301      0.0618
     25  H         65.6710   38.3030   27.4960 H     301  G5E301      0.0618
     26  H         66.5040   34.0990   24.8600 H     301  G5E301      0.0627
     27  H         66.6470   32.7230   26.8480 H     301  G5E301      0.0654
     28  H         63.2630   36.0250   20.8450 H     301  G5E301      0.1911
     29  H         64.1830   37.2820   25.8770 H     301  G5E301      0.0639
     30  H         61.9260   34.4420   24.1190 H     301  G5E301      0.2922
     31  H         65.4900   31.5270   28.5350 H     301  G5E301      0.2921
@<TRIPOS>BOND
     1     1    13   ar
     2     1     2   ar
     3     1    21    1
     4     2     3   ar
     5     2    22    1
     6     3    11   ar
     7     3    20    1
     8     4    14   ar
     9     4    16   ar
    10     4    11    1
    11     5    15   ar
    12     5    18    2
    13     5    16   ar
    14     6    16    1
    15     6     7   ar
    16     6    17   ar
    17     7    19    1
    18     7     8   ar
    19     8     9   ar
    20     8    23    1
    21     9    10   ar
    22     9    24    1
    23    10    17   ar
    24    10    25    1
    25    11    12   ar
    26    12    13   ar
    27    12    26    1
    28    13    27    1
    29    14    15   ar
    30    15    28    1
    31    17    29    1
    32    20    30    1
    33    21    31    1
