@<TRIPOS>MOLECULE
5280961
 30 32 0 0 0
SMALL
GASTEIGER
****

@<TRIPOS>ATOM
      1 O          21.1894   -9.9845   -0.0014 O.2     1  UNL1       -0.4618
      2 O          22.7753  -16.3485   -0.0001 O.3     1  UNL1       -0.5058
      3 O          19.4428  -15.2225   -0.0050 O.2     1  UNL1       -0.2863
      4 O          27.3439  -11.8316    0.0029 O.3     1  UNL1       -0.5065
      5 O          11.1250  -13.1128    0.0030 O.3     1  UNL1       -0.5068
      6 C          21.8968  -13.1921   -0.0008 C.ar    1  UNL1        0.1060
      7 C          18.6695  -12.0948   -0.0019 C.ar    1  UNL1        0.0644
      8 C          22.4154  -11.3777   -0.0005 C.ar    1  UNL1        0.1454
      9 C          19.9541  -13.6472   -0.0024 C.ar    1  UNL1        0.2037
     10 C          16.6954  -12.3599   -0.0006 C.ar    1  UNL1       -0.0110
     11 C          23.2067  -14.5560    0.0001 C.ar    1  UNL1        0.1347
     12 C          19.3831  -10.4253   -0.0014 C.ar    1  UNL1        0.1038
     13 C          24.2463  -10.9166    0.0008 C.ar    1  UNL1        0.0231
     14 C          25.0370  -14.0914    0.0014 C.ar    1  UNL1        0.0223
     15 C          25.5560  -12.2759    0.0017 C.ar    1  UNL1        0.1239
     16 C          15.7331  -12.4659   -0.0875 C.ar    1  UNL1       -0.0504
     17 C          15.7789  -12.5080    0.0874 C.ar    1  UNL1       -0.0504
     18 C          13.8624  -12.7184   -0.0863 C.ar    1  UNL1       -0.0196
     19 C          13.9084  -12.7606    0.0887 C.ar    1  UNL1       -0.0196
     20 C          12.9500  -12.8657    0.0018 C.ar    1  UNL1        0.1169
     21 H          18.5820   -9.1977   -0.0007 H       1  UNL1        0.1037
     22 H          24.6536   -9.5029    0.0010 H       1  UNL1        0.0691
     23 H          26.0566  -15.1528    0.0021 H       1  UNL1        0.0691
     24 H          16.4252  -12.3553   -0.1567 H       1  UNL1        0.0625
     25 H          16.5066  -12.4303    0.1558 H       1  UNL1        0.0625
     26 H          13.1318  -12.7987   -0.1544 H       1  UNL1        0.0654
     27 H          13.2051  -12.8751    0.1575 H       1  UNL1        0.0654
     28 H          21.4737  -16.5107    0.0007 H       1  UNL1        0.2922
     29 H          28.0586  -12.9368    0.0034 H       1  UNL1        0.2921
     30 H          10.6851  -13.1538   -0.0633 H       1  UNL1        0.2921
@<TRIPOS>BOND
     1     1     8   ar
     2     1    12   ar
     3     2    11    1
     4    19    20   ar
     5     3     9    2
     6     4    15    1
     7    18    20   ar
     8     5    20    1
     9    17    19   ar
    10     6     8   ar
    11     6     9   ar
    12     6    11   ar
    13     7     9   ar
    14     7    10    1
    15     7    12   ar
    16     8    13   ar
    17    10    16   ar
    18    10    17   ar
    19    11    14   ar
    20    16    18   ar
    21    13    15   ar
    22    14    15   ar
    23    13    22    1
    24    14    23    1
    25    12    21    1
    26    16    24    1
    27     5    30    1
    28    17    25    1
    29     4    29    1
    30    18    26    1
    31     2    28    1
    32    19    27    1
