# created with PyMOL 2.5.0
@<TRIPOS>MOLECULE
jz4_H
22 22 1                 
SMALL
USER_CHARGES
@<TRIPOS>ATOM
1	 OAB	23.412	-23.536	-4.342	O.3	1	JZ4167	0.000	
2	  C4	24.294	-24.124	-0.071	C.3	1	JZ4167	0.000	
3	  C7	21.553	-27.214	-4.112	C.2	1	JZ4167	0.000	
4	  C8	22.068	-26.747	-5.331	C.2	1	JZ4167	0.000	
5	  C9	22.671	-25.512	-5.448	C.2	1	JZ4167	0.000	
6	 C10	22.769	-24.730	-4.295	C.2	1	JZ4167	0.000	
7	 C11	21.693	-26.459	-2.954	C.2	1	JZ4167	0.000	
8	 C12	22.294	-25.187	-3.075	C.2	1	JZ4167	0.000	
9	 C13	22.463	-24.414	-1.808	C.3	1	JZ4167	0.000	
10	 C14	23.925	-24.704	-1.394	C.3	1	JZ4167	0.000	
11	   H	25.313	-24.362	0.151	 H	1	JZ4167	0.000	
12	   H	23.659	-24.533	0.687	 H	1	JZ4167	0.000	
13	   H	24.174	-23.061	-0.102	 H	1	JZ4167	0.000	
14	   H	21.067	-28.124	-4.075	 H	1	JZ4167	0.000	
15	   H	21.993	-27.347	-6.167	 H	1	JZ4167	0.000	
16	   H	23.036	-25.178	-6.354	 H	1	JZ4167	0.000	
17	   H	21.370	-26.814	-2.040	 H	1	JZ4167	0.000	
18	   H	21.779	-24.755	-1.059	 H	1	JZ4167	0.000	
19	   H	22.266	-23.369	-1.930	 H	1	JZ4167	0.000	
20	   H	24.576	-24.293	-2.137	 H	1	JZ4167	0.000	
21	   H	24.024	-25.766	-1.311	 H	1	JZ4167	0.000	
22	   H	23.739	-23.212	-5.158	 H	1	JZ4167	0.000	
@<TRIPOS>BOND
1 1 22 1
2 2 10 1
3 2 11 1
4 2 12 1
5 2 13 1
6 3 4 ar
7 3 7 ar
8 3 14 1
9 4 5 ar
10 4 15 1
11 5 6 ar
12 5 16 1
13 1 6 1
14 6 8 ar
15 7 8 ar
16 7 17 1
17 8 9 1
18 9 10 1
19 9 18 1
20 9 19 1
21 10 20 1
22 10 21 1
@<TRIPOS>SUBSTRUCTURE
1	JZ4167	1	GROUP	1 A	JZ4
