REMARK  8 active torsions:
REMARK  status: ('A' for Active; 'I' for Inactive)
REMARK       I    between atoms: N_8  and  C_21 
REMARK       I    between atoms: N_9  and  C_20 
REMARK    1  A    between atoms: N_9  and  C_24 
REMARK    2  A    between atoms: N_10  and  C_22 
REMARK       I    between atoms: N_10  and  C_30 
REMARK    3  A    between atoms: C_16  and  C_20 
REMARK    4  A    between atoms: C_21  and  C_22 
REMARK    5  A    between atoms: C_22  and  C_23 
REMARK    6  A    between atoms: C_24  and  C_28 
REMARK    7  A    between atoms: C_28  and  C_29 
REMARK    8  A    between atoms: C_30  and  C_34 
ROOT
HETATM    1  N   UNL     1       4.565  -5.106  11.214  1.00  0.00    -0.195 NA
HETATM    2  C   UNL     1       6.035  -4.190   9.218  1.00  0.00     0.192 C 
HETATM    3  C   UNL     1       5.218  -4.683  10.362  1.00  0.00     0.084 C 
ENDROOT
BRANCH   2   4
HETATM    4  N   UNL     1       6.858  -5.306   8.699  1.00  0.00    -0.342 N 
HETATM    5  C   UNL     1       7.838  -5.167   7.730  1.00  0.00     0.242 C 
HETATM    6  O   UNL     1       8.175  -4.064   7.302  1.00  0.00    -0.271 OA
HETATM    7  H   UNL     1       6.413  -6.222   8.722  1.00  0.00     0.163 HD
BRANCH   5   8
HETATM    8  C   UNL     1       8.414  -6.532   7.168  1.00  0.00     0.184 C 
HETATM    9  N   UNL     1       7.720  -7.017   5.953  1.00  0.00    -0.336 N 
HETATM   10  C   UNL     1       8.650  -7.735   5.081  1.00  0.00     0.132 C 
HETATM   11  C   UNL     1       6.338  -7.143   5.906  1.00  0.00     0.244 C 
HETATM   12  C   UNL     1       9.981  -7.109   5.362  1.00  0.00     0.019 A 
HETATM   13  C   UNL     1       9.861  -6.379   6.678  1.00  0.00     0.032 A 
HETATM   14  C   UNL     1      10.952  -7.446   6.480  1.00  0.00    -0.036 A 
HETATM   15  C   UNL     1      10.922  -8.803   7.125  1.00  0.00     0.016 C 
HETATM   16  C   UNL     1      12.368  -6.906   6.334  1.00  0.00     0.016 C 
HETATM   17  O   UNL     1       5.629  -6.796   6.859  1.00  0.00    -0.271 OA
BRANCH  11  18
HETATM   18  C   UNL     1       5.652  -7.649   4.593  1.00  0.00     0.184 C 
BRANCH  18  19
HETATM   19  N   UNL     1       4.579  -8.590   4.952  1.00  0.00    -0.340 N 
HETATM   20  C   UNL     1       4.863  -9.900   5.324  1.00  0.00     0.326 C 
HETATM   21  O   UNL     1       6.021 -10.325   5.290  1.00  0.00    -0.263 OA
HETATM   22  H   UNL     1       3.674  -8.219   5.235  1.00  0.00     0.163 HD
BRANCH  20  23
HETATM   23  C   UNL     1       3.645 -10.760   5.749  1.00  0.00     0.472 C 
HETATM   24  F   UNL     1       2.486 -10.039   5.762  1.00  0.00    -0.162 F 
HETATM   25  F   UNL     1       3.784 -11.283   6.998  1.00  0.00    -0.162 F 
HETATM   26  F   UNL     1       3.434 -11.808   4.906  1.00  0.00    -0.162 F 
ENDBRANCH  20  23
ENDBRANCH  18  19
BRANCH  18  27
HETATM   27  C   UNL     1       5.108  -6.482   3.690  1.00  0.00    -0.022 C 
HETATM   28  C   UNL     1       3.983  -5.654   4.350  1.00  0.00     0.017 C 
HETATM   29  C   UNL     1       6.245  -5.513   3.313  1.00  0.00     0.017 C 
HETATM   30  C   UNL     1       4.542  -7.075   2.378  1.00  0.00     0.017 C 
ENDBRANCH  18  27
ENDBRANCH  11  18
ENDBRANCH   5   8
ENDBRANCH   2   4
BRANCH   2  31
HETATM   31  C   UNL     1       5.106  -3.610   8.116  1.00  0.00     0.054 C 
BRANCH  31  32
HETATM   32  C   UNL     1       4.177  -2.445   8.520  1.00  0.00     0.082 C 
HETATM   33  C   UNL     1       4.952  -1.242   9.020  1.00  0.00     0.222 C 
HETATM   34  O   UNL     1       5.448  -1.119  10.125  1.00  0.00    -0.273 OA
HETATM   35  N   UNL     1       5.061  -0.333   7.987  1.00  0.00    -0.361 N 
HETATM   36  C   UNL     1       4.475  -0.819   6.775  1.00  0.00     0.123 C 
HETATM   37  H   UNL     1       5.638   0.495   8.080  1.00  0.00     0.162 HD
HETATM   38  C   UNL     1       3.470  -1.836   7.287  1.00  0.00     0.034 C 
ENDBRANCH  31  32
ENDBRANCH   2  31
TORSDOF 8
